#read_data	/Users/niko/Desktop/VSCode/simulation-UHMW-PE-adhesion/lammps/data/sim_md_1kA.txt

# Dreiding potential information
neighbor	0.4 bin
neigh_modify	every 10 one 10000
bond_style      harmonic
bond_coeff	1 350 1.53
angle_style     harmonic
angle_coeff	1 60 109.5
dihedral_style	multi/harmonic
dihedral_coeff	1 1.73 -4.49 0.776 6.99 0.0
pair_style	lj/cut 10.5
pair_coeff	1 1 0.112 4.01 10.5

compute csym all centro/atom fcc
compute peratom all pe/atom
compute temp all temp
compute kenetic all ke/atom

#####################################################
# Equilibration (Langevin dynamics at 500 K)

velocity 	all create 500.0 1231
fix		1 all nve/limit 0.05
fix		2 all langevin 500.0 500.0 10.0 904297
thermo_style	custom step temp press
thermo          	100
#dump 1 all cfg 1 dump.sim_1kA_*.cfg mass type xs ys zs c_csym c_peratom fx fy fz
timestep	1
run		1000
  update every 10 steps, delay 10 steps, check yes
Step Temp Press
0          500    10367.898
Averages over the last 6 of 11 rows, steps 500 to 1000:
Temp Press
497.368 14053.7
Loop time of 13.0343 on 1 procs for 1000 steps with 1200 atoms

unfix 1
unfix 2

write_restart 	/Users/niko/Desktop/VSCode/simulation-UHMW-PE-adhesion/lammps/restart_sim1k/restart.sim_1kA_restart_LD

# Equilibration Stage 2 (NPT dynamics at 500 K)
fix		1 all npt temp 500.0 500.0 50 iso 0 0 1000 drag 2
fix  		2 all momentum 1 linear 1 1 1
thermo_style	custom step temp press
thermo          	100
timestep	0.5
reset_timestep	0
run		1000
Step Temp Press
0    508.69538    14160.513
Averages over the last 6 of 11 rows, steps 500 to 1000:
Temp Press
486.291 2906.56
Loop time of 12.0209 on 1 procs for 1000 steps with 1200 atoms

unfix 1
unfix 2

write_restart 	/Users/niko/Desktop/VSCode/simulation-UHMW-PE-adhesion/lammps/restart_sim1k/restart.sim_1kA_restart_NPT

# Equilibration Stage 3 (NPT dynamics from 500 K --> 100 K)
fix		1 all npt temp 500 100 50 iso 0 0 1000 drag 2
fix		2 all momentum 1 linear 1 1 1
thermo_style	custom step temp press
thermo          	10
timestep	0.5
reset_timestep 	0
run		1000
Step Temp Press
0    469.95982    3296.8031
Averages over the last 51 of 101 rows, steps 500 to 1000:
Temp Press
328.656 -2.93725
Loop time of 10.6996 on 1 procs for 1000 steps with 1200 atoms

unfix 1
unfix 2

write_restart 	/Users/niko/Desktop/VSCode/simulation-UHMW-PE-adhesion/lammps/restart_sim1k/restart.sim_1kA_restart_NPT_500K_100K

# Equilibration Stage 4 (NPT dynamics at 100 K)
fix		1 all npt temp 100 100 50 iso 0 0 1000 drag 2
fix		2 all momentum 1 linear 1 1 1
thermo_style	custom step temp press epair ebond eangle edihed pxx pyy pzz lx ly lz
thermo          	10
timestep	0.5
reset_timestep 	0
run		1000
Step Temp Press E_pair E_bond E_angle E_dihed Pxx Pyy Pzz Lx Ly Lz
0    247.02595   -608.41876   -1595.6295    333.89602    246.98536    245.52333    808.00653   -1390.9291   -1242.3337    25.404124    52.085142    33.077654
Averages over the last 51 of 101 rows, steps 500 to 1000:
Temp Press E_pair E_bond E_angle E_dihed Pxx Pyy Pzz Lx Ly Lz
137.237 -385.328 -1725.19 163.658 133.144 125.251 -304.79 -742.778 -108.417 24.6035 50.4438 32.0353
Loop time of 10.7222 on 1 procs for 1000 steps with 1200 atoms

unfix 1
unfix 2

write_restart 	/Users/niko/Desktop/VSCode/simulation-UHMW-PE-adhesion/lammps/restart_sim1k/restart.sim_1kA_restart_NPT_100K

write_data /Users/niko/Desktop/VSCode/simulation-UHMW-PE-adhesion/lammps/final_save/data.sim_1kA_final

#####################################################
# Define Settings
#compute eng all pe/atom
#compute eatoms all reduce sum c_eng

#####################################################
# Minimization

#reset_timestep 0
#fix 1 all nvt temp 500.0 500.0 100.0
#thermo 20
#thermo_style custom step pe lx ly lz press pxx pyy pzz c_eatoms
#min_style cg
#minimize 1e-25 1e-25 500000 1000000

#print "All done"
